5288826
 OpenBabel04162009543D

 40 44  0  0  1  0  0  0  0  0999 V2000
   -1.9930   -0.4740    1.2005 O   0  0  0  0  0  0  0  0  0  0  0  0
   -2.7826   -2.5168   -0.2218 O   0  0  0  0  0  0  0  0  0  0  0  0
   -3.6220    1.8421    0.5579 O   0  0  0  0  0  0  0  0  0  0  0  0
    3.1777   -0.0101    0.4474 N   0  0  0  0  0  0  0  0  0  0  0  0
    0.3699   -0.7149    0.6616 C   0  0  1  0  0  0  0  0  0  0  0  0
    1.2913   -1.3046   -0.4170 C   0  0  2  0  0  0  0  0  0  0  0  0
    2.3441   -0.2023   -0.7640 C   0  0  1  0  0  0  0  0  0  0  0  0
   -0.9377   -1.4750    0.9848 C   0  0  2  0  0  0  0  0  0  0  0  0
    1.1988   -0.3907    1.9201 C   0  0  0  0  0  0  0  0  0  0  0  0
   -0.2516    0.5302    0.1205 C   0  0  0  0  0  0  0  0  0  0  0  0
    1.6887    1.1052   -1.3279 C   0  0  0  0  0  0  0  0  0  0  0  0
    2.4315    0.4754    1.6126 C   0  0  0  0  0  0  0  0  0  0  0  0
    0.3384    1.4306   -0.7480 C   0  0  0  0  0  0  0  0  0  0  0  0
   -1.3631   -2.5067   -0.0924 C   0  0  2  0  0  0  0  0  0  0  0  0
    0.5066   -1.8183   -1.5971 C   0  0  0  0  0  0  0  0  0  0  0  0
   -1.5672    0.6306    0.5136 C   0  0  0  0  0  0  0  0  0  0  0  0
   -0.7155   -2.3492   -1.4425 C   0  0  0  0  0  0  0  0  0  0  0  0
    4.3733    0.7916    0.2084 C   0  0  0  0  0  0  0  0  0  0  0  0
   -0.4184    2.5415   -1.1246 C   0  0  0  0  0  0  0  0  0  0  0  0
   -2.3310    1.7217    0.1620 C   0  0  0  0  0  0  0  0  0  0  0  0
   -1.7382    2.6936   -0.6541 C   0  0  0  0  0  0  0  0  0  0  0  0
    1.8278   -2.1759   -0.0118 H   0  0  0  0  0  0  0  0  0  0  0  0
    3.0029   -0.6035   -1.5465 H   0  0  0  0  0  0  0  0  0  0  0  0
   -0.8451   -2.0128    1.9373 H   0  0  0  0  0  0  0  0  0  0  0  0
    1.5366   -1.3335    2.3712 H   0  0  0  0  0  0  0  0  0  0  0  0
    0.5899    0.1174    2.6790 H   0  0  0  0  0  0  0  0  0  0  0  0
    1.5474    0.9596   -2.4075 H   0  0  0  0  0  0  0  0  0  0  0  0
    2.3530    1.9680   -1.2194 H   0  0  0  0  0  0  0  0  0  0  0  0
    2.1271    1.5205    1.4760 H   0  0  0  0  0  0  0  0  0  0  0  0
    3.0801    0.4584    2.4975 H   0  0  0  0  0  0  0  0  0  0  0  0
   -1.0772   -3.5067    0.2593 H   0  0  0  0  0  0  0  0  0  0  0  0
    0.9601   -1.7947   -2.5831 H   0  0  0  0  0  0  0  0  0  0  0  0
   -1.2300   -2.7505   -2.3109 H   0  0  0  0  0  0  0  0  0  0  0  0
    4.1500    1.8479    0.0287 H   0  0  0  0  0  0  0  0  0  0  0  0
    4.9380    0.4055   -0.6472 H   0  0  0  0  0  0  0  0  0  0  0  0
    5.0444    0.7352    1.0730 H   0  0  0  0  0  0  0  0  0  0  0  0
   -0.0062    3.2824   -1.8043 H   0  0  0  0  0  0  0  0  0  0  0  0
   -2.3121    3.5638   -0.9645 H   0  0  0  0  0  0  0  0  0  0  0  0
   -3.1557   -2.6446    0.6672 H   0  0  0  0  0  0  0  0  0  0  0  0
   -3.8483    1.0686    1.1031 H   0  0  0  0  0  0  0  0  0  0  0  0
  1  8  1  0  0  0  0
  1 16  1  0  0  0  0
  2 14  1  0  0  0  0
  2 39  1  0  0  0  0
  3 20  1  0  0  0  0
  3 40  1  0  0  0  0
  4  7  1  0  0  0  0
  4 12  1  0  0  0  0
  4 18  1  0  0  0  0
  5  6  1  0  0  0  0
  5  8  1  0  0  0  0
  5  9  1  0  0  0  0
  5 10  1  6  0  0  0
  6  7  1  0  0  0  0
  6 15  1  0  0  0  0
  6 22  1  1  0  0  0
  7 11  1  0  0  0  0
  7 23  1  6  0  0  0
  8 14  1  0  0  0  0
  8 24  1  1  0  0  0
  9 12  1  0  0  0  0
  9 25  1  0  0  0  0
  9 26  1  0  0  0  0
 10 13  2  0  0  0  0
 10 16  1  0  0  0  0
 11 13  1  0  0  0  0
 11 27  1  0  0  0  0
 11 28  1  0  0  0  0
 12 29  1  0  0  0  0
 12 30  1  0  0  0  0
 13 19  1  0  0  0  0
 14 17  1  0  0  0  0
 14 31  1  1  0  0  0
 15 17  2  0  0  0  0
 15 32  1  0  0  0  0
 16 20  2  0  0  0  0
 17 33  1  0  0  0  0
 18 34  1  0  0  0  0
 18 35  1  0  0  0  0
 18 36  1  0  0  0  0
 19 21  2  0  0  0  0
 19 37  1  0  0  0  0
 20 21  1  0  0  0  0
 21 38  1  0  0  0  0
M  END
>  <PUBCHEM_COMPOUND_CID>
5288826

>  <PUBCHEM_CONFORMER_RMSD>
0.6

>  <PUBCHEM_CONFORMER_DIVERSEORDER>
1

>  <PUBCHEM_MMFF94_PARTIAL_CHARGES>
26
1 -0.36
10 -0.14
11 0.14
12 0.27
13 -0.14
14 0.42
15 -0.29
16 0.08
17 -0.29
18 0.27
19 -0.15
2 -0.68
20 0.08
21 -0.15
3 -0.53
32 0.15
33 0.15
37 0.15
38 0.15
39 0.4
4 -0.81
40 0.45
5 0.14
6 0.14
7 0.27
8 0.28

>  <PUBCHEM_EFFECTIVE_ROTOR_COUNT>
1.2

>  <PUBCHEM_PHARMACOPHORE_FEATURES>
10
1 1 acceptor
1 2 acceptor
1 2 donor
1 3 donor
1 4 cation
5 1 5 8 10 16 rings
6 10 13 16 19 20 21 rings
6 4 5 6 7 9 12 rings
6 5 6 7 10 11 13 rings
6 5 6 8 14 15 17 rings

>  <PUBCHEM_HEAVY_ATOM_COUNT>
21

>  <PUBCHEM_ATOM_DEF_STEREO_COUNT>
5

>  <PUBCHEM_ATOM_UDEF_STEREO_COUNT>
0

>  <PUBCHEM_BOND_DEF_STEREO_COUNT>
0

>  <PUBCHEM_BOND_UDEF_STEREO_COUNT>
0

>  <PUBCHEM_ISOTOPIC_ATOM_COUNT>
0

>  <PUBCHEM_COMPONENT_COUNT>
1

>  <PUBCHEM_CACTVS_TAUTO_COUNT>
3

>  <PUBCHEM_CONFORMER_ID>
0050B37A00000001

>  <PUBCHEM_MMFF94_ENERGY>
74.8429

>  <PUBCHEM_FEATURE_SELFOVERLAP>
52.873

>  <PUBCHEM_SHAPE_FINGERPRINT>
10165383 225 18201451224619826784
10863032 1 18271807882738128182
10871710 139 17975427020448559044
10948715 1 18269553840856601268
11578080 2 17916862543033451120
12035758 1 17979921506076134602
12326174 3 16761939621672351259
12403814 3 18127127700562790162
12423570 1 13554306196661771698
13132413 78 16832327581639147097
13140716 1 18188786057421996321
13172582 1 18260836951273720209
13681431 1 17258466355483259718
141345 1 11468367428490074574
144361 1 17623048910753830566
14817 1 13651070280742688743
15852999 172 18199182901892535827
16945 1 18189637062236146638
17357779 13 17772166846782183447
18393751 57 17187542376137546200
19868273 325 18263924500288743760
21524375 3 18267574711299526024
22112679 90 18121790679236681172
22182313 1 18194427527483256583
2334 1 17972616638225251261
23388829 49 17833828657105785732
23402539 116 18338509850163596911
23419403 2 15694871661581035675
23557571 272 18270408299151999272
23559900 14 18059580127798590934
238 59 17618764874292193101
2748010 2 17975155161707925181
34934 24 18113338621838265964
495365 180 17547829890269334821
7364860 26 17256519721717681045
81228 2 18194937829152466419
84936 31 17124492616027647943

>  <PUBCHEM_SHAPE_MULTIPOLES>
409.58
4.45
3.02
1.55
2.3
0.24
-0.13
-1.6
-0.99
-2.59
1.17
0.46
0.26
-0.03

>  <PUBCHEM_SHAPE_SELFOVERLAP>
930.437

>  <PUBCHEM_SHAPE_VOLUME>
211.2

>  <PUBCHEM_COORDINATE_TYPE>
2
5
10

>  <RMSD>
0.000000

$$$$
5754
 OpenBabel04162009543D

 56 59  0  0  1  0  0  0  0  0999 V2000
    0.4817    0.4315    1.7579 O   0  0  0  0  0  0  0  0  0  0  0  0
   -3.2184    2.3749   -1.3626 O   0  0  0  0  0  0  0  0  0  0  0  0
   -1.7882   -1.4633    1.0018 O   0  0  0  0  0  0  0  0  0  0  0  0
   -0.2579   -3.5611    1.9128 O   0  0  0  0  0  0  0  0  0  0  0  0
   -1.2677    9.1440   -1.7646 O   0  0  0  0  0  0  0  0  0  0  0  0
   -0.7260    0.8327   -0.3460 C   0  0  1  0  0  0  0  0  0  0  0  0
    0.3852    1.7833   -0.8418 C   0  0  2  0  0  0  0  0  0  0  0  0
   -0.1214    2.8782   -1.7928 C   0  0  1  0  0  0  0  0  0  0  0  0
   -1.1912    3.7393   -1.0458 C   0  0  1  0  0  0  0  0  0  0  0  0
    0.1334   -0.1448    0.5026 C   0  0  1  0  0  0  0  0  0  0  0  0
   -1.7492    1.6840    0.4332 C   0  0  0  0  0  0  0  0  0  0  0  0
   -1.7022    4.9681   -1.9040 C   0  0  2  0  0  0  0  0  0  0  0  0
   -2.3065    2.8663   -0.3905 C   0  0  2  0  0  0  0  0  0  0  0  0
    1.4752    0.8314   -1.3272 C   0  0  0  0  0  0  0  0  0  0  0  0
    1.4149   -0.3508   -0.3373 C   0  0  0  0  0  0  0  0  0  0  0  0
    1.0458    3.7629   -2.2586 C   0  0  0  0  0  0  0  0  0  0  0  0
   -1.4215    0.0505   -1.4944 C   0  0  0  0  0  0  0  0  0  0  0  0
   -0.4927    5.7365   -2.4540 C   0  0  0  0  0  0  0  0  0  0  0  0
    0.5706    4.9109   -3.1361 C   0  0  0  0  0  0  0  0  0  0  0  0
   -2.5400    5.8915   -0.9721 C   0  0  0  0  0  0  0  0  0  0  0  0
   -2.5699    4.5582   -3.1155 C   0  0  0  0  0  0  0  0  0  0  0  0
   -0.5684   -1.4248    0.8476 C   0  0  0  0  0  0  0  0  0  0  0  0
   -2.7609    7.2859   -1.5363 C   0  0  0  0  0  0  0  0  0  0  0  0
   -0.3563    7.0716   -2.3921 C   0  0  0  0  0  0  0  0  0  0  0  0
   -1.4392    7.9307   -1.8606 C   0  0  0  0  0  0  0  0  0  0  0  0
    0.3071   -2.6514    0.9926 C   0  0  0  0  0  0  0  0  0  0  0  0
    0.8096    2.3077    0.0308 H   0  0  0  0  0  0  0  0  0  0  0  0
   -0.5667    2.4234   -2.6830 H   0  0  0  0  0  0  0  0  0  0  0  0
   -0.6510    4.1808   -0.1911 H   0  0  0  0  0  0  0  0  0  0  0  0
   -1.2812    2.1033    1.3325 H   0  0  0  0  0  0  0  0  0  0  0  0
   -2.5764    1.0511    0.7756 H   0  0  0  0  0  0  0  0  0  0  0  0
   -2.8903    3.4931    0.2930 H   0  0  0  0  0  0  0  0  0  0  0  0
    2.4642    1.3007   -1.3203 H   0  0  0  0  0  0  0  0  0  0  0  0
    1.2785    0.4867   -2.3488 H   0  0  0  0  0  0  0  0  0  0  0  0
    1.4100   -1.2763   -0.9223 H   0  0  0  0  0  0  0  0  0  0  0  0
    2.3156   -0.3537    0.2874 H   0  0  0  0  0  0  0  0  0  0  0  0
    1.7676    3.1643   -2.8266 H   0  0  0  0  0  0  0  0  0  0  0  0
    1.5829    4.1655   -1.3897 H   0  0  0  0  0  0  0  0  0  0  0  0
   -2.3407   -0.4353   -1.1511 H   0  0  0  0  0  0  0  0  0  0  0  0
   -1.7091    0.6909   -2.3309 H   0  0  0  0  0  0  0  0  0  0  0  0
   -0.7823   -0.7314   -1.9182 H   0  0  0  0  0  0  0  0  0  0  0  0
    0.1673    4.5132   -4.0755 H   0  0  0  0  0  0  0  0  0  0  0  0
    1.4369    5.5252   -3.4110 H   0  0  0  0  0  0  0  0  0  0  0  0
   -2.0290    5.9962   -0.0046 H   0  0  0  0  0  0  0  0  0  0  0  0
   -3.5169    5.4412   -0.7585 H   0  0  0  0  0  0  0  0  0  0  0  0
   -2.1342    3.7240   -3.6742 H   0  0  0  0  0  0  0  0  0  0  0  0
   -3.5812    4.2676   -2.8149 H   0  0  0  0  0  0  0  0  0  0  0  0
   -2.6890    5.3873   -3.8240 H   0  0  0  0  0  0  0  0  0  0  0  0
    1.1511   -0.1323    2.1815 H   0  0  0  0  0  0  0  0  0  0  0  0
   -3.2734    7.8998   -0.7874 H   0  0  0  0  0  0  0  0  0  0  0  0
   -3.3763    7.2670   -2.4413 H   0  0  0  0  0  0  0  0  0  0  0  0
   -3.9160    1.8852   -0.8949 H   0  0  0  0  0  0  0  0  0  0  0  0
    0.5196    7.5777   -2.7835 H   0  0  0  0  0  0  0  0  0  0  0  0
    1.2879   -2.3754    1.3870 H   0  0  0  0  0  0  0  0  0  0  0  0
    0.4243   -3.1431    0.0232 H   0  0  0  0  0  0  0  0  0  0  0  0
   -1.0913   -3.8846    1.5300 H   0  0  0  0  0  0  0  0  0  0  0  0
  1 49  1  0  0  0  0
  2 13  1  0  0  0  0
  2 52  1  0  0  0  0
  3 22  2  0  0  0  0
  4 26  1  0  0  0  0
  4 56  1  0  0  0  0
  5 25  2  0  0  0  0
  6  7  1  0  0  0  0
  6 10  1  0  0  0  0
  6 11  1  0  0  0  0
  6 17  1  6  0  0  0
  7  8  1  0  0  0  0
  7 14  1  0  0  0  0
  7 27  1  1  0  0  0
  8  9  1  0  0  0  0
  8 16  1  0  0  0  0
  8 28  1  6  0  0  0
  9 12  1  0  0  0  0
  9 13  1  0  0  0  0
  9 29  1  1  0  0  0
 10  1  1  1  0  0  0
 10 15  1  0  0  0  0
 10 22  1  0  0  0  0
 11 13  1  0  0  0  0
 11 30  1  0  0  0  0
 11 31  1  0  0  0  0
 12 18  1  0  0  0  0
 12 20  1  0  0  0  0
 12 21  1  6  0  0  0
 13 32  1  1  0  0  0
 14 15  1  0  0  0  0
 14 33  1  0  0  0  0
 14 34  1  0  0  0  0
 15 35  1  0  0  0  0
 15 36  1  0  0  0  0
 16 19  1  0  0  0  0
 16 37  1  0  0  0  0
 16 38  1  0  0  0  0
 17 39  1  0  0  0  0
 17 40  1  0  0  0  0
 17 41  1  0  0  0  0
 18 19  1  0  0  0  0
 18 24  2  0  0  0  0
 19 42  1  0  0  0  0
 19 43  1  0  0  0  0
 20 23  1  0  0  0  0
 20 44  1  0  0  0  0
 20 45  1  0  0  0  0
 21 46  1  0  0  0  0
 21 47  1  0  0  0  0
 21 48  1  0  0  0  0
 22 26  1  0  0  0  0
 23 25  1  0  0  0  0
 23 50  1  0  0  0  0
 23 51  1  0  0  0  0
 24 25  1  0  0  0  0
 24 53  1  0  0  0  0
 26 54  1  0  0  0  0
 26 55  1  0  0  0  0
M  END
>  <PUBCHEM_COMPOUND_CID>
5754

>  <PUBCHEM_CONFORMER_RMSD>
0.8

>  <PUBCHEM_CONFORMER_DIVERSEORDER>
1
2

>  <PUBCHEM_MMFF94_PARTIAL_CHARGES>
19
1 -0.68
10 0.34
12 0.14
13 0.28
18 -0.28
19 0.14
2 -0.68
22 0.45
23 0.06
24 -0.14
25 0.49
26 0.34
3 -0.57
4 -0.68
49 0.4
5 -0.57
52 0.4
53 0.15
56 0.4

>  <PUBCHEM_EFFECTIVE_ROTOR_COUNT>
3.8

>  <PUBCHEM_PHARMACOPHORE_FEATURES>
12
1 1 acceptor
1 1 donor
1 2 acceptor
1 2 donor
1 3 acceptor
1 4 acceptor
1 4 donor
1 5 acceptor
5 6 7 10 14 15 rings
6 12 18 20 23 24 25 rings
6 6 7 8 9 11 13 rings
6 8 9 12 16 18 19 rings

>  <PUBCHEM_HEAVY_ATOM_COUNT>
26

>  <PUBCHEM_ATOM_DEF_STEREO_COUNT>
7

>  <PUBCHEM_ATOM_UDEF_STEREO_COUNT>
0

>  <PUBCHEM_BOND_DEF_STEREO_COUNT>
0

>  <PUBCHEM_BOND_UDEF_STEREO_COUNT>
0

>  <PUBCHEM_ISOTOPIC_ATOM_COUNT>
0

>  <PUBCHEM_COMPONENT_COUNT>
1

>  <PUBCHEM_CACTVS_TAUTO_COUNT>
15

>  <PUBCHEM_CONFORMER_ID>
0000167A00000001

>  <PUBCHEM_MMFF94_ENERGY>
85.0863

>  <PUBCHEM_FEATURE_SELFOVERLAP>
60.996

>  <PUBCHEM_SHAPE_FINGERPRINT>
10366900 7 17917991672175146074
10498660 4 18408889524763672473
10906281 52 18341347607985845683
11315181 36 18130792282518495720
12011746 2 18341891904727391439
12236239 1 18060137604787030645
12403814 3 17240481403427723823
12516196 113 17775562044062305241
12596602 18 13614524056371416254
12788726 201 17988081067548850729
13140716 1 18265349476001296808
13224815 77 18343024371618182666
14849402 71 10303228262883412618
14931854 50 18411412878749210413
15196674 1 18408604725572198827
15238133 3 14273737309224184039
15375358 24 18409450292905420890
15788980 27 17095527309454736952
1601671 61 18260265248113354012
16945 1 18261122880046750585
17349148 13 18410004429580546211
18608769 82 18261959656616516491
18681886 176 18337386153770032520
19862831 5 18409730643049138363
200 152 17917708003124163943
20511986 3 18113885079285796338
20645477 70 18130507435860751606
21029758 11 18343300379565872769
21267235 1 18337964470652351643
21285901 2 17968650511269078327
21857420 4 12342185328057798381
221357 26 18341603807813301061
22393880 68 18413101771327272199
23402539 116 18409728474217079222
23559900 14 18340200890230348120
23569914 152 17049928088149316461
2871803 45 18411138013479345358
3004659 81 18187925019821925458
335352 9 18335420187923670678
34797466 226 17703794742473936260
34934 24 18333730204303173866
350125 39 18336554919000698507
3545911 37 18408041818700104899
3633792 109 18264201422821744903
465052 167 11167937000249878013
484989 97 18193835071553554375
5104073 3 18334017155252301027
5283173 99 18337104575445464629
59755656 215 18335706001593323438
59755656 520 18113329825560919743
9709674 26 18341059514554586038

>  <PUBCHEM_SHAPE_MULTIPOLES>
505.72
12.37
2.14
1.19
2.59
0.54
-0.2
-1.82
4.07
-0.35
-0.31
-0.33
-0.22
0.2

>  <PUBCHEM_SHAPE_SELFOVERLAP>
1088.966

>  <PUBCHEM_SHAPE_VOLUME>
274.5

>  <PUBCHEM_COORDINATE_TYPE>
2
5
10

>  <RMSD>
1.520666

$$$$
44285958
 OpenBabel04162009543D

 64 65  0  0  1  0  0  0  0  0999 V2000
    2.7627   -1.5147   -0.8079 O   0  0  0  0  0  0  0  0  0  0  0  0
    0.8638    0.2942    3.4590 O   0  0  0  0  0  0  0  0  0  0  0  0
    0.5284   -2.8800    2.4716 O   0  0  0  0  0  0  0  0  0  0  0  0
    2.7689    2.6275    2.4921 O   0  0  0  0  0  0  0  0  0  0  0  0
   -1.3143   -2.2452    1.2287 O   0  0  0  0  0  0  0  0  0  0  0  0
    4.6168   -2.7752   -1.6492 O   0  0  0  0  0  0  0  0  0  0  0  0
   -1.4012   -0.0442    3.7484 O   0  0  0  0  0  0  0  0  0  0  0  0
    2.1506    1.1179    0.8434 N   0  0  0  0  0  0  0  0  0  0  0  0
    1.2372    0.0759    0.2837 C   0  0  2  0  0  0  0  0  0  0  0  0
    1.8724   -1.3403    0.2940 C   0  0  1  0  0  0  0  0  0  0  0  0
    0.6865    0.5010   -1.0828 C   0  0  0  0  0  0  0  0  0  0  0  0
    0.6529    1.5639    2.8166 C   0  0  2  0  0  0  0  0  0  0  0  0
    0.8405   -2.4687    0.1774 C   0  0  0  0  0  0  0  0  0  0  0  0
    1.9450    1.8215    2.0441 C   0  0  0  0  0  0  0  0  0  0  0  0
    0.4165    2.6312    3.8830 C   0  0  0  0  0  0  0  0  0  0  0  0
   -0.3818    1.5467   -0.9421 C   0  0  0  0  0  0  0  0  0  0  0  0
    3.4062    1.3776    0.1396 C   0  0  0  0  0  0  0  0  0  0  0  0
   -0.1249   -2.5154    1.3333 C   0  0  0  0  0  0  0  0  0  0  0  0
    1.5494    2.6269    4.9071 C   0  0  0  0  0  0  0  0  0  0  0  0
    0.2779    4.0098    3.2413 C   0  0  0  0  0  0  0  0  0  0  0  0
    0.1997   -1.6867    4.5518 C   0  0  1  0  0  0  0  0  0  0  0  0
   -0.2225   -2.8857    3.7020 C   0  0  0  0  0  0  0  0  0  0  0  0
   -0.2356   -0.3931    3.8840 C   0  0  0  0  0  0  0  0  0  0  0  0
   -1.7171    1.1662   -0.8084 C   0  0  0  0  0  0  0  0  0  0  0  0
   -0.0389    2.8989   -0.9455 C   0  0  0  0  0  0  0  0  0  0  0  0
    3.7312   -2.5296   -0.5569 C   0  0  0  0  0  0  0  0  0  0  0  0
   -0.4006   -1.7560    5.9515 C   0  0  0  0  0  0  0  0  0  0  0  0
   -2.7094    2.1379   -0.6778 C   0  0  0  0  0  0  0  0  0  0  0  0
   -1.0312    3.8704   -0.8149 C   0  0  0  0  0  0  0  0  0  0  0  0
   -2.3664    3.4900   -0.6810 C   0  0  0  0  0  0  0  0  0  0  0  0
    5.3822   -1.6267   -1.9897 C   0  0  0  0  0  0  0  0  0  0  0  0
    0.3869    0.0046    0.9604 H   0  0  0  0  0  0  0  0  0  0  0  0
    2.4250   -1.4473    1.2378 H   0  0  0  0  0  0  0  0  0  0  0  0
    0.2391   -0.3571   -1.5987 H   0  0  0  0  0  0  0  0  0  0  0  0
    1.4636    0.8521   -1.7687 H   0  0  0  0  0  0  0  0  0  0  0  0
   -0.2020    1.5353    2.1340 H   0  0  0  0  0  0  0  0  0  0  0  0
    1.2945   -3.4625    0.1168 H   0  0  0  0  0  0  0  0  0  0  0  0
    0.2643   -2.3805   -0.7507 H   0  0  0  0  0  0  0  0  0  0  0  0
   -0.5127    2.3960    4.4165 H   0  0  0  0  0  0  0  0  0  0  0  0
    4.0765    0.5287    0.2987 H   0  0  0  0  0  0  0  0  0  0  0  0
    3.9068    2.2755    0.5120 H   0  0  0  0  0  0  0  0  0  0  0  0
    3.2348    1.5153   -0.9284 H   0  0  0  0  0  0  0  0  0  0  0  0
    2.4210    3.2212    4.6218 H   0  0  0  0  0  0  0  0  0  0  0  0
    1.8818    1.6237    5.1889 H   0  0  0  0  0  0  0  0  0  0  0  0
    1.1829    3.0954    5.8299 H   0  0  0  0  0  0  0  0  0  0  0  0
    1.1940    4.3828    2.7770 H   0  0  0  0  0  0  0  0  0  0  0  0
   -0.0131    4.7445    4.0010 H   0  0  0  0  0  0  0  0  0  0  0  0
   -0.5088    4.0035    2.4793 H   0  0  0  0  0  0  0  0  0  0  0  0
    1.2936   -1.6772    4.6419 H   0  0  0  0  0  0  0  0  0  0  0  0
    0.0282   -3.8198    4.2163 H   0  0  0  0  0  0  0  0  0  0  0  0
   -1.3031   -2.8948    3.5183 H   0  0  0  0  0  0  0  0  0  0  0  0
   -1.9970    0.1162   -0.8008 H   0  0  0  0  0  0  0  0  0  0  0  0
    0.9968    3.2100   -1.0512 H   0  0  0  0  0  0  0  0  0  0  0  0
    4.3314   -2.2600    0.3211 H   0  0  0  0  0  0  0  0  0  0  0  0
    3.2532   -3.4890   -0.3504 H   0  0  0  0  0  0  0  0  0  0  0  0
   -1.4953   -1.7891    5.9175 H   0  0  0  0  0  0  0  0  0  0  0  0
   -0.1157   -0.8773    6.5404 H   0  0  0  0  0  0  0  0  0  0  0  0
   -0.0504   -2.6480    6.4813 H   0  0  0  0  0  0  0  0  0  0  0  0
   -3.7489    1.8416   -0.5724 H   0  0  0  0  0  0  0  0  0  0  0  0
   -0.7641    4.9230   -0.8167 H   0  0  0  0  0  0  0  0  0  0  0  0
   -3.1389    4.2464   -0.5786 H   0  0  0  0  0  0  0  0  0  0  0  0
    6.0713   -1.8997   -2.7935 H   0  0  0  0  0  0  0  0  0  0  0  0
    5.9667   -1.2848   -1.1301 H   0  0  0  0  0  0  0  0  0  0  0  0
    4.7335   -0.8223   -2.3489 H   0  0  0  0  0  0  0  0  0  0  0  0
  1 10  1  0  0  0  0
  1 26  1  0  0  0  0
  2 12  1  0  0  0  0
  2 23  1  0  0  0  0
  3 18  1  0  0  0  0
  3 22  1  0  0  0  0
  4 14  2  0  0  0  0
  5 18  2  0  0  0  0
  6 26  1  0  0  0  0
  6 31  1  0  0  0  0
  7 23  2  0  0  0  0
  8  9  1  0  0  0  0
  8 14  1  0  0  0  0
  8 17  1  0  0  0  0
  9 10  1  0  0  0  0
  9 11  1  0  0  0  0
  9 32  1  1  0  0  0
 10 13  1  0  0  0  0
 10 33  1  1  0  0  0
 11 16  1  0  0  0  0
 11 34  1  0  0  0  0
 11 35  1  0  0  0  0
 12 14  1  0  0  0  0
 12 15  1  0  0  0  0
 12 36  1  6  0  0  0
 13 18  1  0  0  0  0
 13 37  1  0  0  0  0
 13 38  1  0  0  0  0
 15 19  1  0  0  0  0
 15 20  1  0  0  0  0
 15 39  1  0  0  0  0
 16 24  2  0  0  0  0
 16 25  1  0  0  0  0
 17 40  1  0  0  0  0
 17 41  1  0  0  0  0
 17 42  1  0  0  0  0
 19 43  1  0  0  0  0
 19 44  1  0  0  0  0
 19 45  1  0  0  0  0
 20 46  1  0  0  0  0
 20 47  1  0  0  0  0
 20 48  1  0  0  0  0
 21 22  1  0  0  0  0
 21 23  1  0  0  0  0
 21 27  1  0  0  0  0
 21 49  1  1  0  0  0
 22 50  1  0  0  0  0
 22 51  1  0  0  0  0
 24 28  1  0  0  0  0
 24 52  1  0  0  0  0
 25 29  2  0  0  0  0
 25 53  1  0  0  0  0
 26 54  1  0  0  0  0
 26 55  1  0  0  0  0
 27 56  1  0  0  0  0
 27 57  1  0  0  0  0
 27 58  1  0  0  0  0
 28 30  2  0  0  0  0
 28 59  1  0  0  0  0
 29 30  1  0  0  0  0
 29 60  1  0  0  0  0
 30 61  1  0  0  0  0
 31 62  1  0  0  0  0
 31 63  1  0  0  0  0
 31 64  1  0  0  0  0
M  END
>  <PUBCHEM_COMPOUND_CID>
44285958

>  <PUBCHEM_CONFORMER_RMSD>
1

>  <PUBCHEM_CONFORMER_DIVERSEORDER>
1
7
51
56
36
39
4
22
31
25
14
40
16
3
37
17
11
50
47
45
24
53
9
46
41
32
26
19
35
5
43
12
48
6
8
52
23
29
20
44
54
28
38
57
49
18
21
55
2
10
34
15
42
27
33
13
30

>  <PUBCHEM_MMFF94_PARTIAL_CHARGES>
32
1 -0.56
10 0.28
11 0.14
12 0.34
13 0.06
14 0.57
16 -0.14
17 0.3
18 0.66
2 -0.43
21 0.06
22 0.28
23 0.66
24 -0.15
25 -0.15
26 0.56
28 -0.15
29 -0.15
3 -0.43
30 -0.15
31 0.28
4 -0.57
5 -0.57
52 0.15
53 0.15
59 0.15
6 -0.56
60 0.15
61 0.15
7 -0.57
8 -0.66
9 0.3

>  <PUBCHEM_EFFECTIVE_ROTOR_COUNT>
7.8

>  <PUBCHEM_PHARMACOPHORE_FEATURES>
7
1 1 acceptor
1 4 acceptor
1 5 acceptor
1 6 acceptor
1 7 acceptor
3 15 19 20 hydrophobe
6 16 24 25 28 29 30 rings

>  <PUBCHEM_HEAVY_ATOM_COUNT>
31

>  <PUBCHEM_ATOM_DEF_STEREO_COUNT>
4

>  <PUBCHEM_ATOM_UDEF_STEREO_COUNT>
0

>  <PUBCHEM_BOND_DEF_STEREO_COUNT>
0

>  <PUBCHEM_BOND_UDEF_STEREO_COUNT>
0

>  <PUBCHEM_ISOTOPIC_ATOM_COUNT>
0

>  <PUBCHEM_COMPONENT_COUNT>
1

>  <PUBCHEM_CACTVS_TAUTO_COUNT>
8

>  <PUBCHEM_CONFORMER_ID>
02A3C00600000001

>  <PUBCHEM_MMFF94_ENERGY>
83.6538

>  <PUBCHEM_FEATURE_SELFOVERLAP>
35.557

>  <PUBCHEM_SHAPE_FINGERPRINT>
10006869 2 16972568696397961249
11115154 58 17763168147927214181
11578080 2 17835838504522040113
12156800 1 15216918084455518454
12597179 24 17983858066798312185
12788726 201 17334513604835527809
133893 2 17702403881956316625
14068700 675 17759517772763708622
14787075 74 18272104794096501964
15664445 248 17916300542025059135
17980427 26 18269251552890543405
20600515 1 17907624390264977260
20691752 17 17109905863387453706
20775438 99 17986659584041056887
23419403 2 17911826835148373252
35225 105 17827890117795248208
508706 21 17763751283635693038
57527452 28 16098345098324358954
6669772 16 18268981141780832355

>  <PUBCHEM_SHAPE_MULTIPOLES>
591.9
6.31
5.68
3.12
8.22
4.5
-0.72
-5.22
-2.88
-3.29
2.83
-1.47
-0.29
3.75

>  <PUBCHEM_SHAPE_SELFOVERLAP>
1209.064

>  <PUBCHEM_SHAPE_VOLUME>
338.3

>  <PUBCHEM_COORDINATE_TYPE>
2
5
10

>  <RMSD>
1.799700

$$$$
44285926
 OpenBabel04162009543D

 51 52  0  0  1  0  0  0  0  0999 V2000
    1.1011   -1.8600   -1.5367 O   0  0  0  0  0  0  0  0  0  0  0  0
   -0.3647   -1.2069    2.2591 O   0  0  0  0  0  0  0  0  0  0  0  0
    1.9716    0.1846    3.2314 O   0  0  0  0  0  0  0  0  0  0  0  0
    4.8048    0.1300    1.8141 O   0  0  0  0  0  0  0  0  0  0  0  0
    0.3797   -3.2516    2.9938 O   0  0  0  0  0  0  0  0  0  0  0  0
    0.7275    1.8984    4.1462 O   0  0  0  0  0  0  0  0  0  0  0  0
    2.9947   -0.1930    0.3860 N   0  0  0  0  0  0  0  0  0  0  0  0
    1.5449   -0.0539    0.0720 C   0  0  2  0  0  0  0  0  0  0  0  0
    0.7906   -1.3795   -0.2273 C   0  0  2  0  0  0  0  0  0  0  0  0
    1.3371    0.9849   -1.0384 C   0  0  0  0  0  0  0  0  0  0  0  0
    0.9927   -2.5123    0.7916 C   0  0  0  0  0  0  0  0  0  0  0  0
   -0.0309    1.6005   -0.9652 C   0  0  0  0  0  0  0  0  0  0  0  0
   -0.9691   -0.8845    3.5354 C   0  0  1  0  0  0  0  0  0  0  0  0
    0.1130   -0.4296    4.5411 C   0  0  1  0  0  0  0  0  0  0  0  0
    3.6122    0.3077    1.5436 C   0  0  0  0  0  0  0  0  0  0  0  0
    3.8485   -0.8794   -0.5832 C   0  0  0  0  0  0  0  0  0  0  0  0
    0.3040   -2.3804    2.1340 C   0  0  0  0  0  0  0  0  0  0  0  0
    2.7697    1.1189    2.5058 C   0  0  0  0  0  0  0  0  0  0  0  0
    0.9545    0.7079    3.9773 C   0  0  0  0  0  0  0  0  0  0  0  0
   -2.0390    0.1660    3.2478 C   0  0  0  0  0  0  0  0  0  0  0  0
   -0.4592   -0.0447    5.9038 C   0  0  0  0  0  0  0  0  0  0  0  0
   -1.0936    1.0222   -1.6593 C   0  0  0  0  0  0  0  0  0  0  0  0
   -0.2389    2.7499   -0.2031 C   0  0  0  0  0  0  0  0  0  0  0  0
   -2.3643    1.5936   -1.5914 C   0  0  0  0  0  0  0  0  0  0  0  0
   -1.5094    3.3214   -0.1352 C   0  0  0  0  0  0  0  0  0  0  0  0
   -2.5722    2.7432   -0.8294 C   0  0  0  0  0  0  0  0  0  0  0  0
    1.0686    0.3445    0.9668 H   0  0  0  0  0  0  0  0  0  0  0  0
   -0.2824   -1.1595   -0.2524 H   0  0  0  0  0  0  0  0  0  0  0  0
    1.5127    0.5644   -2.0360 H   0  0  0  0  0  0  0  0  0  0  0  0
    2.0795    1.7893   -0.9403 H   0  0  0  0  0  0  0  0  0  0  0  0
    2.0594   -2.6649    0.9840 H   0  0  0  0  0  0  0  0  0  0  0  0
    0.6188   -3.4459    0.3519 H   0  0  0  0  0  0  0  0  0  0  0  0
   -1.4745   -1.7796    3.9206 H   0  0  0  0  0  0  0  0  0  0  0  0
    0.8034   -1.2648    4.7202 H   0  0  0  0  0  0  0  0  0  0  0  0
    3.6049   -1.9441   -0.5911 H   0  0  0  0  0  0  0  0  0  0  0  0
    4.9096   -0.7735   -0.3429 H   0  0  0  0  0  0  0  0  0  0  0  0
    3.6807   -0.4560   -1.5769 H   0  0  0  0  0  0  0  0  0  0  0  0
    0.5243   -2.6214   -1.7179 H   0  0  0  0  0  0  0  0  0  0  0  0
    3.4332    1.6411    3.2039 H   0  0  0  0  0  0  0  0  0  0  0  0
    2.1677    1.8604    1.9719 H   0  0  0  0  0  0  0  0  0  0  0  0
   -1.6032    1.0752    2.8209 H   0  0  0  0  0  0  0  0  0  0  0  0
   -2.6053    0.4303    4.1447 H   0  0  0  0  0  0  0  0  0  0  0  0
   -2.7456   -0.2136    2.5009 H   0  0  0  0  0  0  0  0  0  0  0  0
   -1.0867    0.8506    5.8504 H   0  0  0  0  0  0  0  0  0  0  0  0
    0.3499    0.1740    6.6097 H   0  0  0  0  0  0  0  0  0  0  0  0
   -1.0580   -0.8614    6.3196 H   0  0  0  0  0  0  0  0  0  0  0  0
   -0.9460    0.1329   -2.2659 H   0  0  0  0  0  0  0  0  0  0  0  0
    0.5799    3.2094    0.3442 H   0  0  0  0  0  0  0  0  0  0  0  0
   -3.1914    1.1446   -2.1337 H   0  0  0  0  0  0  0  0  0  0  0  0
   -1.6715    4.2159    0.4589 H   0  0  0  0  0  0  0  0  0  0  0  0
   -3.5615    3.1882   -0.7765 H   0  0  0  0  0  0  0  0  0  0  0  0
  1  9  1  0  0  0  0
  1 38  1  0  0  0  0
  2 13  1  0  0  0  0
  2 17  1  0  0  0  0
  3 18  1  0  0  0  0
  3 19  1  0  0  0  0
  4 15  2  0  0  0  0
  5 17  2  0  0  0  0
  6 19  2  0  0  0  0
  7  8  1  0  0  0  0
  7 15  1  0  0  0  0
  7 16  1  0  0  0  0
  8  9  1  0  0  0  0
  8 10  1  0  0  0  0
  8 27  1  1  0  0  0
  9 11  1  0  0  0  0
  9 28  1  1  0  0  0
 10 12  1  0  0  0  0
 10 29  1  0  0  0  0
 10 30  1  0  0  0  0
 11 17  1  0  0  0  0
 11 31  1  0  0  0  0
 11 32  1  0  0  0  0
 12 22  2  0  0  0  0
 12 23  1  0  0  0  0
 13 14  1  0  0  0  0
 13 20  1  0  0  0  0
 13 33  1  1  0  0  0
 14 19  1  0  0  0  0
 14 21  1  0  0  0  0
 14 34  1  1  0  0  0
 15 18  1  0  0  0  0
 16 35  1  0  0  0  0
 16 36  1  0  0  0  0
 16 37  1  0  0  0  0
 18 39  1  0  0  0  0
 18 40  1  0  0  0  0
 20 41  1  0  0  0  0
 20 42  1  0  0  0  0
 20 43  1  0  0  0  0
 21 44  1  0  0  0  0
 21 45  1  0  0  0  0
 21 46  1  0  0  0  0
 22 24  1  0  0  0  0
 22 47  1  0  0  0  0
 23 25  2  0  0  0  0
 23 48  1  0  0  0  0
 24 26  2  0  0  0  0
 24 49  1  0  0  0  0
 25 26  1  0  0  0  0
 25 50  1  0  0  0  0
 26 51  1  0  0  0  0
M  END
>  <PUBCHEM_COMPOUND_CID>
44285926

>  <PUBCHEM_CONFORMER_RMSD>
0.8

>  <PUBCHEM_CONFORMER_DIVERSEORDER>
1
20
18
19
9
22
21
8
2
11
13
17
16
14
24
15
12
10
3
7
4
23
5
6

>  <PUBCHEM_MMFF94_PARTIAL_CHARGES>
30
1 -0.68
10 0.14
11 0.06
12 -0.14
13 0.28
14 0.06
15 0.57
16 0.3
17 0.66
18 0.34
19 0.66
2 -0.43
22 -0.15
23 -0.15
24 -0.15
25 -0.15
26 -0.15
3 -0.43
38 0.4
4 -0.57
47 0.15
48 0.15
49 0.15
5 -0.57
50 0.15
51 0.15
6 -0.57
7 -0.66
8 0.3
9 0.28

>  <PUBCHEM_EFFECTIVE_ROTOR_COUNT>
3.8

>  <PUBCHEM_PHARMACOPHORE_FEATURES>
6
1 1 acceptor
1 1 donor
1 4 acceptor
1 5 acceptor
1 6 acceptor
6 12 22 23 24 25 26 rings

>  <PUBCHEM_HEAVY_ATOM_COUNT>
26

>  <PUBCHEM_ATOM_DEF_STEREO_COUNT>
4

>  <PUBCHEM_ATOM_UDEF_STEREO_COUNT>
0

>  <PUBCHEM_BOND_DEF_STEREO_COUNT>
0

>  <PUBCHEM_BOND_UDEF_STEREO_COUNT>
0

>  <PUBCHEM_ISOTOPIC_ATOM_COUNT>
0

>  <PUBCHEM_COMPONENT_COUNT>
1

>  <PUBCHEM_CACTVS_TAUTO_COUNT>
8

>  <PUBCHEM_CONFORMER_ID>
02A3BFE600000001

>  <PUBCHEM_MMFF94_ENERGY>
63.9286

>  <PUBCHEM_FEATURE_SELFOVERLAP>
30.448

>  <PUBCHEM_SHAPE_FINGERPRINT>
107951 10 16955359157627131357
11578080 2 18272079534982936168
11582403 64 15692664572382359281
12156800 1 17259842617613521914
12422481 6 17128778710628759411
12553582 1 18263104204875504778
12788726 201 18188501176546269532
13931106 250 18191588553910469378
18981168 100 10807927155410870296
20775530 9 18340490079132287894
21330990 113 17828511096899052657
21421861 104 17487066814531301731
22907989 373 17606991419830318204
23419403 2 17843935213221560000
3027735 51 18192707843552193015
35225 105 17833304967379722238
484985 159 17843970234675542438
513532 50 17762851758913428687
550186 7 17398331772516026648
84936 31 17470462088844335273

>  <PUBCHEM_SHAPE_MULTIPOLES>
494.87
5.78
4.27
2.48
4.51
1.35
0.53
-5.49
-0.46
-1.34
-0.81
-1.39
0.83
0.8

>  <PUBCHEM_SHAPE_SELFOVERLAP>
1019.23

>  <PUBCHEM_SHAPE_VOLUME>
280.3

>  <PUBCHEM_COORDINATE_TYPE>
2
5
10

>  <RMSD>
1.515213

$$$$
