5288826
  -OEChem-03242010093D

 40 44  0     1  0  0  0  0  0999 V2000
   -1.9930   -0.4740    1.2005 O   0  0  0  0  0  0  0  0  0  0  0  0
   -2.7826   -2.5168   -0.2218 O   0  0  0  0  0  0  0  0  0  0  0  0
   -3.6220    1.8421    0.5579 O   0  0  0  0  0  0  0  0  0  0  0  0
    3.1777   -0.0101    0.4474 N   0  0  2  0  0  0  0  0  0  0  0  0
    0.3699   -0.7149    0.6616 C   0  0  1  0  0  0  0  0  0  0  0  0
    1.2913   -1.3046   -0.4170 C   0  0  2  0  0  0  0  0  0  0  0  0
    2.3441   -0.2023   -0.7640 C   0  0  1  0  0  0  0  0  0  0  0  0
   -0.9377   -1.4750    0.9848 C   0  0  2  0  0  0  0  0  0  0  0  0
    1.1988   -0.3907    1.9201 C   0  0  0  0  0  0  0  0  0  0  0  0
   -0.2516    0.5302    0.1205 C   0  0  0  0  0  0  0  0  0  0  0  0
    1.6887    1.1052   -1.3279 C   0  0  0  0  0  0  0  0  0  0  0  0
    2.4315    0.4754    1.6126 C   0  0  0  0  0  0  0  0  0  0  0  0
    0.3384    1.4306   -0.7480 C   0  0  0  0  0  0  0  0  0  0  0  0
   -1.3631   -2.5067   -0.0924 C   0  0  2  0  0  0  0  0  0  0  0  0
    0.5066   -1.8183   -1.5971 C   0  0  0  0  0  0  0  0  0  0  0  0
   -1.5672    0.6306    0.5136 C   0  0  0  0  0  0  0  0  0  0  0  0
   -0.7155   -2.3492   -1.4425 C   0  0  0  0  0  0  0  0  0  0  0  0
    4.3733    0.7916    0.2084 C   0  0  0  0  0  0  0  0  0  0  0  0
   -0.4184    2.5415   -1.1246 C   0  0  0  0  0  0  0  0  0  0  0  0
   -2.3310    1.7217    0.1620 C   0  0  0  0  0  0  0  0  0  0  0  0
   -1.7382    2.6936   -0.6541 C   0  0  0  0  0  0  0  0  0  0  0  0
    1.8278   -2.1759   -0.0118 H   0  0  0  0  0  0  0  0  0  0  0  0
    3.0029   -0.6035   -1.5465 H   0  0  0  0  0  0  0  0  0  0  0  0
   -0.8451   -2.0128    1.9373 H   0  0  0  0  0  0  0  0  0  0  0  0
    1.5366   -1.3335    2.3712 H   0  0  0  0  0  0  0  0  0  0  0  0
    0.5899    0.1174    2.6790 H   0  0  0  0  0  0  0  0  0  0  0  0
    1.5474    0.9596   -2.4075 H   0  0  0  0  0  0  0  0  0  0  0  0
    2.3530    1.9680   -1.2194 H   0  0  0  0  0  0  0  0  0  0  0  0
    2.1271    1.5205    1.4760 H   0  0  0  0  0  0  0  0  0  0  0  0
    3.0801    0.4584    2.4975 H   0  0  0  0  0  0  0  0  0  0  0  0
   -1.0772   -3.5067    0.2593 H   0  0  0  0  0  0  0  0  0  0  0  0
    0.9601   -1.7947   -2.5831 H   0  0  0  0  0  0  0  0  0  0  0  0
   -1.2300   -2.7505   -2.3109 H   0  0  0  0  0  0  0  0  0  0  0  0
    4.1500    1.8479    0.0287 H   0  0  0  0  0  0  0  0  0  0  0  0
    4.9380    0.4055   -0.6472 H   0  0  0  0  0  0  0  0  0  0  0  0
    5.0444    0.7352    1.0730 H   0  0  0  0  0  0  0  0  0  0  0  0
   -0.0062    3.2824   -1.8043 H   0  0  0  0  0  0  0  0  0  0  0  0
   -2.3121    3.5638   -0.9645 H   0  0  0  0  0  0  0  0  0  0  0  0
   -3.1557   -2.6446    0.6672 H   0  0  0  0  0  0  0  0  0  0  0  0
   -3.8483    1.0686    1.1031 H   0  0  0  0  0  0  0  0  0  0  0  0
  1  8  1  0  0  0  0
  1 16  1  0  0  0  0
  2 14  1  0  0  0  0
  2 39  1  0  0  0  0
  3 20  1  0  0  0  0
  3 40  1  0  0  0  0
  4  7  1  0  0  0  0
  4 12  1  0  0  0  0
  4 18  1  0  0  0  0
  5  6  1  0  0  0  0
  5  8  1  0  0  0  0
  5  9  1  0  0  0  0
  5 10  1  0  0  0  0
  6  7  1  0  0  0  0
  6 15  1  0  0  0  0
  6 22  1  0  0  0  0
  7 11  1  0  0  0  0
  7 23  1  0  0  0  0
  8 14  1  0  0  0  0
  8 24  1  0  0  0  0
  9 12  1  0  0  0  0
  9 25  1  0  0  0  0
  9 26  1  0  0  0  0
 10 13  2  0  0  0  0
 10 16  1  0  0  0  0
 11 13  1  0  0  0  0
 11 27  1  0  0  0  0
 11 28  1  0  0  0  0
 12 29  1  0  0  0  0
 12 30  1  0  0  0  0
 13 19  1  0  0  0  0
 14 17  1  0  0  0  0
 14 31  1  0  0  0  0
 15 17  2  0  0  0  0
 15 32  1  0  0  0  0
 16 20  2  0  0  0  0
 17 33  1  0  0  0  0
 18 34  1  0  0  0  0
 18 35  1  0  0  0  0
 18 36  1  0  0  0  0
 19 21  2  0  0  0  0
 19 37  1  0  0  0  0
 20 21  1  0  0  0  0
 21 38  1  0  0  0  0
M  END
> <PUBCHEM_COMPOUND_CID>
5288826

> <PUBCHEM_CONFORMER_RMSD>
0.6

> <PUBCHEM_CONFORMER_DIVERSEORDER>
1

> <PUBCHEM_MMFF94_PARTIAL_CHARGES>
26
1 -0.36
10 -0.14
11 0.14
12 0.27
13 -0.14
14 0.42
15 -0.29
16 0.08
17 -0.29
18 0.27
19 -0.15
2 -0.68
20 0.08
21 -0.15
3 -0.53
32 0.15
33 0.15
37 0.15
38 0.15
39 0.4
4 -0.81
40 0.45
5 0.14
6 0.14
7 0.27
8 0.28

> <PUBCHEM_EFFECTIVE_ROTOR_COUNT>
1.2

> <PUBCHEM_PHARMACOPHORE_FEATURES>
10
1 1 acceptor
1 2 acceptor
1 2 donor
1 3 donor
1 4 cation
5 1 5 8 10 16 rings
6 10 13 16 19 20 21 rings
6 4 5 6 7 9 12 rings
6 5 6 7 10 11 13 rings
6 5 6 8 14 15 17 rings

> <PUBCHEM_HEAVY_ATOM_COUNT>
21

> <PUBCHEM_ATOM_DEF_STEREO_COUNT>
5

> <PUBCHEM_ATOM_UDEF_STEREO_COUNT>
0

> <PUBCHEM_BOND_DEF_STEREO_COUNT>
0

> <PUBCHEM_BOND_UDEF_STEREO_COUNT>
0

> <PUBCHEM_ISOTOPIC_ATOM_COUNT>
0

> <PUBCHEM_COMPONENT_COUNT>
1

> <PUBCHEM_CACTVS_TAUTO_COUNT>
3

> <PUBCHEM_CONFORMER_ID>
0050B37A00000001

> <PUBCHEM_MMFF94_ENERGY>
74.8429

> <PUBCHEM_FEATURE_SELFOVERLAP>
52.873

> <PUBCHEM_SHAPE_FINGERPRINT>
10165383 225 18201451224619826784
10863032 1 18271807882738128182
10871710 139 17975427020448559044
10948715 1 18269553840856601268
11578080 2 17916862543033451120
12035758 1 17979921506076134602
12326174 3 16761939621672351259
12403814 3 18127127700562790162
12423570 1 13554306196661771698
13132413 78 16832327581639147097
13140716 1 18188786057421996321
13172582 1 18260836951273720209
13681431 1 17258466355483259718
141345 1 11468367428490074574
144361 1 17623048910753830566
14817 1 13651070280742688743
15852999 172 18199182901892535827
16945 1 18189637062236146638
17357779 13 17772166846782183447
18393751 57 17187542376137546200
19868273 325 18263924500288743760
21524375 3 18267574711299526024
22112679 90 18121790679236681172
22182313 1 18194427527483256583
2334 1 17972616638225251261
23388829 49 17833828657105785732
23402539 116 18338509850163596911
23419403 2 15694871661581035675
23557571 272 18270408299151999272
23559900 14 18059580127798590934
238 59 17618764874292193101
2748010 2 17975155161707925181
34934 24 18113338621838265964
495365 180 17547829890269334821
7364860 26 17256519721717681045
81228 2 18194937829152466419
84936 31 17124492616027647943

> <PUBCHEM_SHAPE_MULTIPOLES>
409.58
4.45
3.02
1.55
2.3
0.24
-0.13
-1.6
-0.99
-2.59
1.17
0.46
0.26
-0.03

> <PUBCHEM_SHAPE_SELFOVERLAP>
930.437

> <PUBCHEM_SHAPE_VOLUME>
211.2

> <PUBCHEM_COORDINATE_TYPE>
2
5
10

$$$$
5754
  -OEChem-03242010093D

 56 59  0     1  0  0  0  0  0999 V2000
    3.1144   -0.2859   -1.9416 O   0  0  0  0  0  0  0  0  0  0  0  0
   -0.2290    2.1443    1.2399 O   0  0  0  0  0  0  0  0  0  0  0  0
    4.3267    1.6729    0.0603 O   0  0  0  0  0  0  0  0  0  0  0  0
    6.7987    0.5839   -0.4649 O   0  0  0  0  0  0  0  0  0  0  0  0
   -6.4227   -0.0344   -1.3444 O   0  0  0  0  0  0  0  0  0  0  0  0
    1.8917    0.1629    0.1439 C   0  0  1  0  0  0  0  0  0  0  0  0
    0.9976   -1.0770   -0.0738 C   0  0  2  0  0  0  0  0  0  0  0  0
   -0.4048   -0.9389    0.5376 C   0  0  1  0  0  0  0  0  0  0  0  0
   -1.1203    0.2887   -0.1144 C   0  0  1  0  0  0  0  0  0  0  0  0
    3.2007   -0.3456   -0.5210 C   0  0  1  0  0  0  0  0  0  0  0  0
    1.2023    1.3572   -0.5469 C   0  0  0  0  0  0  0  0  0  0  0  0
   -2.6188    0.4571    0.3689 C   0  0  2  0  0  0  0  0  0  0  0  0
   -0.2481    1.5819   -0.0645 C   0  0  2  0  0  0  0  0  0  0  0  0
    1.8852   -2.2363    0.3713 C   0  0  0  0  0  0  0  0  0  0  0  0
    3.3025   -1.8232   -0.0778 C   0  0  0  0  0  0  0  0  0  0  0  0
   -1.2196   -2.2201    0.2998 C   0  0  0  0  0  0  0  0  0  0  0  0
    2.1566    0.4723    1.6434 C   0  0  0  0  0  0  0  0  0  0  0  0
   -3.3459   -0.8879    0.2342 C   0  0  0  0  0  0  0  0  0  0  0  0
   -2.6438   -2.0894    0.8180 C   0  0  0  0  0  0  0  0  0  0  0  0
   -3.3005    1.5233   -0.5375 C   0  0  0  0  0  0  0  0  0  0  0  0
   -2.7469    0.8977    1.8447 C   0  0  0  0  0  0  0  0  0  0  0  0
    4.4119    0.4683   -0.1739 C   0  0  0  0  0  0  0  0  0  0  0  0
   -4.8187    1.5076   -0.4589 C   0  0  0  0  0  0  0  0  0  0  0  0
   -4.5569   -1.0370   -0.3282 C   0  0  0  0  0  0  0  0  0  0  0  0
   -5.3417    0.1333   -0.7839 C   0  0  0  0  0  0  0  0  0  0  0  0
    5.7297   -0.2757   -0.1305 C   0  0  0  0  0  0  0  0  0  0  0  0
    0.8473   -1.2116   -1.1581 H   0  0  0  0  0  0  0  0  0  0  0  0
   -0.3282   -0.7923    1.6194 H   0  0  0  0  0  0  0  0  0  0  0  0
   -1.1826    0.0413   -1.1878 H   0  0  0  0  0  0  0  0  0  0  0  0
    1.1651    1.1932   -1.6310 H   0  0  0  0  0  0  0  0  0  0  0  0
    1.7893    2.2693   -0.3873 H   0  0  0  0  0  0  0  0  0  0  0  0
   -0.6965    2.3364   -0.7206 H   0  0  0  0  0  0  0  0  0  0  0  0
    1.5866   -3.1835   -0.0893 H   0  0  0  0  0  0  0  0  0  0  0  0
    1.8513   -2.3707    1.4585 H   0  0  0  0  0  0  0  0  0  0  0  0
    3.9799   -1.9801    0.7680 H   0  0  0  0  0  0  0  0  0  0  0  0
    3.6327   -2.4726   -0.8968 H   0  0  0  0  0  0  0  0  0  0  0  0
   -0.7411   -3.0685    0.8028 H   0  0  0  0  0  0  0  0  0  0  0  0
   -1.2414   -2.4588   -0.7717 H   0  0  0  0  0  0  0  0  0  0  0  0
    2.5932    1.4674    1.7778 H   0  0  0  0  0  0  0  0  0  0  0  0
    1.2472    0.4542    2.2478 H   0  0  0  0  0  0  0  0  0  0  0  0
    2.8417   -0.2458    2.1066 H   0  0  0  0  0  0  0  0  0  0  0  0
   -2.6306   -2.0002    1.9112 H   0  0  0  0  0  0  0  0  0  0  0  0
   -3.1861   -3.0161    0.5933 H   0  0  0  0  0  0  0  0  0  0  0  0
   -3.0152    1.3502   -1.5848 H   0  0  0  0  0  0  0  0  0  0  0  0
   -2.9470    2.5298   -0.2833 H   0  0  0  0  0  0  0  0  0  0  0  0
   -2.0849    0.3299    2.5058 H   0  0  0  0  0  0  0  0  0  0  0  0
   -2.5197    1.9601    1.9758 H   0  0  0  0  0  0  0  0  0  0  0  0
   -3.7681    0.7560    2.2197 H   0  0  0  0  0  0  0  0  0  0  0  0
    3.8725   -0.7647   -2.3175 H   0  0  0  0  0  0  0  0  0  0  0  0
   -5.2240    2.2162   -1.1896 H   0  0  0  0  0  0  0  0  0  0  0  0
   -5.1788    1.7970    0.5334 H   0  0  0  0  0  0  0  0  0  0  0  0
    0.2825    2.9701    1.1999 H   0  0  0  0  0  0  0  0  0  0  0  0
   -5.0341   -2.0073   -0.4142 H   0  0  0  0  0  0  0  0  0  0  0  0
    5.7358   -1.0838   -0.8657 H   0  0  0  0  0  0  0  0  0  0  0  0
    5.8942   -0.6856    0.8696 H   0  0  0  0  0  0  0  0  0  0  0  0
    6.8615    1.2578    0.2335 H   0  0  0  0  0  0  0  0  0  0  0  0
  1 10  1  0  0  0  0
  1 49  1  0  0  0  0
  2 13  1  0  0  0  0
  2 52  1  0  0  0  0
  3 22  2  0  0  0  0
  4 26  1  0  0  0  0
  4 56  1  0  0  0  0
  5 25  2  0  0  0  0
  6  7  1  0  0  0  0
  6 10  1  0  0  0  0
  6 11  1  0  0  0  0
  6 17  1  0  0  0  0
  7  8  1  0  0  0  0
  7 14  1  0  0  0  0
  7 27  1  0  0  0  0
  8  9  1  0  0  0  0
  8 16  1  0  0  0  0
  8 28  1  0  0  0  0
  9 12  1  0  0  0  0
  9 13  1  0  0  0  0
  9 29  1  0  0  0  0
 10 15  1  0  0  0  0
 10 22  1  0  0  0  0
 11 13  1  0  0  0  0
 11 30  1  0  0  0  0
 11 31  1  0  0  0  0
 12 18  1  0  0  0  0
 12 20  1  0  0  0  0
 12 21  1  0  0  0  0
 13 32  1  0  0  0  0
 14 15  1  0  0  0  0
 14 33  1  0  0  0  0
 14 34  1  0  0  0  0
 15 35  1  0  0  0  0
 15 36  1  0  0  0  0
 16 19  1  0  0  0  0
 16 37  1  0  0  0  0
 16 38  1  0  0  0  0
 17 39  1  0  0  0  0
 17 40  1  0  0  0  0
 17 41  1  0  0  0  0
 18 19  1  0  0  0  0
 18 24  2  0  0  0  0
 19 42  1  0  0  0  0
 19 43  1  0  0  0  0
 20 23  1  0  0  0  0
 20 44  1  0  0  0  0
 20 45  1  0  0  0  0
 21 46  1  0  0  0  0
 21 47  1  0  0  0  0
 21 48  1  0  0  0  0
 22 26  1  0  0  0  0
 23 25  1  0  0  0  0
 23 50  1  0  0  0  0
 23 51  1  0  0  0  0
 24 25  1  0  0  0  0
 24 53  1  0  0  0  0
 26 54  1  0  0  0  0
 26 55  1  0  0  0  0
M  END
> <PUBCHEM_COMPOUND_CID>
5754

> <PUBCHEM_CONFORMER_RMSD>
0.8

> <PUBCHEM_CONFORMER_DIVERSEORDER>
1
2

> <PUBCHEM_MMFF94_PARTIAL_CHARGES>
19
1 -0.68
10 0.34
12 0.14
13 0.28
18 -0.28
19 0.14
2 -0.68
22 0.45
23 0.06
24 -0.14
25 0.49
26 0.34
3 -0.57
4 -0.68
49 0.4
5 -0.57
52 0.4
53 0.15
56 0.4

> <PUBCHEM_EFFECTIVE_ROTOR_COUNT>
3.8

> <PUBCHEM_PHARMACOPHORE_FEATURES>
12
1 1 acceptor
1 1 donor
1 2 acceptor
1 2 donor
1 3 acceptor
1 4 acceptor
1 4 donor
1 5 acceptor
5 6 7 10 14 15 rings
6 12 18 20 23 24 25 rings
6 6 7 8 9 11 13 rings
6 8 9 12 16 18 19 rings

> <PUBCHEM_HEAVY_ATOM_COUNT>
26

> <PUBCHEM_ATOM_DEF_STEREO_COUNT>
7

> <PUBCHEM_ATOM_UDEF_STEREO_COUNT>
0

> <PUBCHEM_BOND_DEF_STEREO_COUNT>
0

> <PUBCHEM_BOND_UDEF_STEREO_COUNT>
0

> <PUBCHEM_ISOTOPIC_ATOM_COUNT>
0

> <PUBCHEM_COMPONENT_COUNT>
1

> <PUBCHEM_CACTVS_TAUTO_COUNT>
15

> <PUBCHEM_CONFORMER_ID>
0000167A00000001

> <PUBCHEM_MMFF94_ENERGY>
85.0863

> <PUBCHEM_FEATURE_SELFOVERLAP>
60.996

> <PUBCHEM_SHAPE_FINGERPRINT>
10366900 7 17917991672175146074
10498660 4 18408889524763672473
10906281 52 18341347607985845683
11315181 36 18130792282518495720
12011746 2 18341891904727391439
12236239 1 18060137604787030645
12403814 3 17240481403427723823
12516196 113 17775562044062305241
12596602 18 13614524056371416254
12788726 201 17988081067548850729
13140716 1 18265349476001296808
13224815 77 18343024371618182666
14849402 71 10303228262883412618
14931854 50 18411412878749210413
15196674 1 18408604725572198827
15238133 3 14273737309224184039
15375358 24 18409450292905420890
15788980 27 17095527309454736952
1601671 61 18260265248113354012
16945 1 18261122880046750585
17349148 13 18410004429580546211
18608769 82 18261959656616516491
18681886 176 18337386153770032520
19862831 5 18409730643049138363
200 152 17917708003124163943
20511986 3 18113885079285796338
20645477 70 18130507435860751606
21029758 11 18343300379565872769
21267235 1 18337964470652351643
21285901 2 17968650511269078327
21857420 4 12342185328057798381
221357 26 18341603807813301061
22393880 68 18413101771327272199
23402539 116 18409728474217079222
23559900 14 18340200890230348120
23569914 152 17049928088149316461
2871803 45 18411138013479345358
3004659 81 18187925019821925458
335352 9 18335420187923670678
34797466 226 17703794742473936260
34934 24 18333730204303173866
350125 39 18336554919000698507
3545911 37 18408041818700104899
3633792 109 18264201422821744903
465052 167 11167937000249878013
484989 97 18193835071553554375
5104073 3 18334017155252301027
5283173 99 18337104575445464629
59755656 215 18335706001593323438
59755656 520 18113329825560919743
9709674 26 18341059514554586038

> <PUBCHEM_SHAPE_MULTIPOLES>
505.72
12.37
2.14
1.19
2.59
0.54
-0.2
-1.82
4.07
-0.35
-0.31
-0.33
-0.22
0.2

> <PUBCHEM_SHAPE_SELFOVERLAP>
1088.966

> <PUBCHEM_SHAPE_VOLUME>
274.5

> <PUBCHEM_COORDINATE_TYPE>
2
5
10

$$$$
44285958
  -OEChem-03242010093D

 64 65  0     1  0  0  0  0  0999 V2000
   -3.3095    0.7141   -0.0920 O   0  0  0  0  0  0  0  0  0  0  0  0
    1.0132   -1.6941   -0.8661 O   0  0  0  0  0  0  0  0  0  0  0  0
   -1.3807   -2.7840    1.1941 O   0  0  0  0  0  0  0  0  0  0  0  0
    1.0171    0.5064   -3.1392 O   0  0  0  0  0  0  0  0  0  0  0  0
   -0.4895   -1.4459    2.8550 O   0  0  0  0  0  0  0  0  0  0  0  0
   -5.6142    0.6854   -0.7416 O   0  0  0  0  0  0  0  0  0  0  0  0
    2.2251   -2.1756    1.0386 O   0  0  0  0  0  0  0  0  0  0  0  0
   -0.4179    0.9284   -1.3665 N   0  0  0  0  0  0  0  0  0  0  0  0
   -0.8544    0.7434    0.0507 C   0  0  2  0  0  0  0  0  0  0  0  0
   -2.1589   -0.0895    0.1679 C   0  0  1  0  0  0  0  0  0  0  0  0
   -0.9036    2.0844    0.7927 C   0  0  0  0  0  0  0  0  0  0  0  0
    1.6763   -0.4295   -1.0407 C   0  0  2  0  0  0  0  0  0  0  0  0
   -2.3747   -0.6853    1.5644 C   0  0  0  0  0  0  0  0  0  0  0  0
    0.7396    0.3729   -1.9415 C   0  0  0  0  0  0  0  0  0  0  0  0
    3.0303   -0.6622   -1.7075 C   0  0  0  0  0  0  0  0  0  0  0  0
    0.4741    2.5672    1.1442 C   0  0  0  0  0  0  0  0  0  0  0  0
   -1.2996    1.6759   -2.2628 C   0  0  0  0  0  0  0  0  0  0  0  0
   -1.3029   -1.6648    1.9667 C   0  0  0  0  0  0  0  0  0  0  0  0
    2.8634   -1.4659   -2.9953 C   0  0  0  0  0  0  0  0  0  0  0  0
    3.7249    0.6678   -1.9907 C   0  0  0  0  0  0  0  0  0  0  0  0
    0.5918   -3.7610    0.1871 C   0  0  1  0  0  0  0  0  0  0  0  0
   -0.3692   -3.7948    1.3759 C   0  0  0  0  0  0  0  0  0  0  0  0
    1.3876   -2.4666    0.1944 C   0  0  0  0  0  0  0  0  0  0  0  0
    1.0503    2.2059    2.3620 C   0  0  0  0  0  0  0  0  0  0  0  0
    1.1777    3.3774    0.2529 C   0  0  0  0  0  0  0  0  0  0  0  0
   -4.4234   -0.0682   -0.5144 C   0  0  0  0  0  0  0  0  0  0  0  0
    1.5548   -4.9427    0.2145 C   0  0  0  0  0  0  0  0  0  0  0  0
    2.3301    2.6547    2.6884 C   0  0  0  0  0  0  0  0  0  0  0  0
    2.4574    3.8260    0.5793 C   0  0  0  0  0  0  0  0  0  0  0  0
    3.0337    3.4647    1.7970 C   0  0  0  0  0  0  0  0  0  0  0  0
   -5.4491    1.6557   -1.7673 C   0  0  0  0  0  0  0  0  0  0  0  0
   -0.0926    0.1378    0.5395 H   0  0  0  0  0  0  0  0  0  0  0  0
   -2.0994   -0.9017   -0.5700 H   0  0  0  0  0  0  0  0  0  0  0  0
   -1.4641    1.9828    1.7297 H   0  0  0  0  0  0  0  0  0  0  0  0
   -1.4411    2.8614    0.2404 H   0  0  0  0  0  0  0  0  0  0  0  0
    1.8239    0.0855   -0.0864 H   0  0  0  0  0  0  0  0  0  0  0  0
   -3.3271   -1.2149    1.6639 H   0  0  0  0  0  0  0  0  0  0  0  0
   -2.4258    0.1026    2.3246 H   0  0  0  0  0  0  0  0  0  0  0  0
    3.6601   -1.2510   -1.0292 H   0  0  0  0  0  0  0  0  0  0  0  0
   -2.1751    1.0595   -2.4836 H   0  0  0  0  0  0  0  0  0  0  0  0
   -0.8111    1.9178   -3.2106 H   0  0  0  0  0  0  0  0  0  0  0  0
   -1.6164    2.6143   -1.8068 H   0  0  0  0  0  0  0  0  0  0  0  0
    2.6241   -0.8658   -3.8767 H   0  0  0  0  0  0  0  0  0  0  0  0
    2.1371   -2.2796   -2.9131 H   0  0  0  0  0  0  0  0  0  0  0  0
    3.8245   -1.9400   -3.2338 H   0  0  0  0  0  0  0  0  0  0  0  0
    3.2274    1.2821   -2.7451 H   0  0  0  0  0  0  0  0  0  0  0  0
    4.7428    0.4843   -2.3538 H   0  0  0  0  0  0  0  0  0  0  0  0
    3.8105    1.2614   -1.0743 H   0  0  0  0  0  0  0  0  0  0  0  0
    0.0130   -3.8048   -0.7445 H   0  0  0  0  0  0  0  0  0  0  0  0
   -0.8921   -4.7567    1.4114 H   0  0  0  0  0  0  0  0  0  0  0  0
    0.1578   -3.6751    2.3296 H   0  0  0  0  0  0  0  0  0  0  0  0
    0.5141    1.5725    3.0636 H   0  0  0  0  0  0  0  0  0  0  0  0
    0.7405    3.6687   -0.6983 H   0  0  0  0  0  0  0  0  0  0  0  0
   -4.1712   -0.6035   -1.4384 H   0  0  0  0  0  0  0  0  0  0  0  0
   -4.6910   -0.8126    0.2379 H   0  0  0  0  0  0  0  0  0  0  0  0
    2.1449   -4.9581    1.1376 H   0  0  0  0  0  0  0  0  0  0  0  0
    2.2570   -4.8912   -0.6247 H   0  0  0  0  0  0  0  0  0  0  0  0
    1.0102   -5.8900    0.1440 H   0  0  0  0  0  0  0  0  0  0  0  0
    2.7792    2.3723    3.6361 H   0  0  0  0  0  0  0  0  0  0  0  0
    3.0054    4.4561   -0.1150 H   0  0  0  0  0  0  0  0  0  0  0  0
    4.0304    3.8134    2.0508 H   0  0  0  0  0  0  0  0  0  0  0  0
   -6.4084    2.1565   -1.9234 H   0  0  0  0  0  0  0  0  0  0  0  0
   -5.1484    1.1778   -2.7047 H   0  0  0  0  0  0  0  0  0  0  0  0
   -4.7106    2.4074   -1.4732 H   0  0  0  0  0  0  0  0  0  0  0  0
  1 10  1  0  0  0  0
  1 26  1  0  0  0  0
  2 12  1  0  0  0  0
  2 23  1  0  0  0  0
  3 18  1  0  0  0  0
  3 22  1  0  0  0  0
  4 14  2  0  0  0  0
  5 18  2  0  0  0  0
  6 26  1  0  0  0  0
  6 31  1  0  0  0  0
  7 23  2  0  0  0  0
  8  9  1  0  0  0  0
  8 14  1  0  0  0  0
  8 17  1  0  0  0  0
  9 10  1  0  0  0  0
  9 11  1  0  0  0  0
  9 32  1  0  0  0  0
 10 13  1  0  0  0  0
 10 33  1  0  0  0  0
 11 16  1  0  0  0  0
 11 34  1  0  0  0  0
 11 35  1  0  0  0  0
 12 14  1  0  0  0  0
 12 15  1  0  0  0  0
 12 36  1  0  0  0  0
 13 18  1  0  0  0  0
 13 37  1  0  0  0  0
 13 38  1  0  0  0  0
 15 19  1  0  0  0  0
 15 20  1  0  0  0  0
 15 39  1  0  0  0  0
 16 24  2  0  0  0  0
 16 25  1  0  0  0  0
 17 40  1  0  0  0  0
 17 41  1  0  0  0  0
 17 42  1  0  0  0  0
 19 43  1  0  0  0  0
 19 44  1  0  0  0  0
 19 45  1  0  0  0  0
 20 46  1  0  0  0  0
 20 47  1  0  0  0  0
 20 48  1  0  0  0  0
 21 22  1  0  0  0  0
 21 23  1  0  0  0  0
 21 27  1  0  0  0  0
 21 49  1  0  0  0  0
 22 50  1  0  0  0  0
 22 51  1  0  0  0  0
 24 28  1  0  0  0  0
 24 52  1  0  0  0  0
 25 29  2  0  0  0  0
 25 53  1  0  0  0  0
 26 54  1  0  0  0  0
 26 55  1  0  0  0  0
 27 56  1  0  0  0  0
 27 57  1  0  0  0  0
 27 58  1  0  0  0  0
 28 30  2  0  0  0  0
 28 59  1  0  0  0  0
 29 30  1  0  0  0  0
 29 60  1  0  0  0  0
 30 61  1  0  0  0  0
 31 62  1  0  0  0  0
 31 63  1  0  0  0  0
 31 64  1  0  0  0  0
M  END
> <PUBCHEM_COMPOUND_CID>
44285958

> <PUBCHEM_CONFORMER_RMSD>
1

> <PUBCHEM_CONFORMER_DIVERSEORDER>
1
7
51
56
36
39
4
22
31
25
14
40
16
3
37
17
11
50
47
45
24
53
9
46
41
32
26
19
35
5
43
12
48
6
8
52
23
29
20
44
54
28
38
57
49
18
21
55
2
10
34
15
42
27
33
13
30

> <PUBCHEM_MMFF94_PARTIAL_CHARGES>
32
1 -0.56
10 0.28
11 0.14
12 0.34
13 0.06
14 0.57
16 -0.14
17 0.3
18 0.66
2 -0.43
21 0.06
22 0.28
23 0.66
24 -0.15
25 -0.15
26 0.56
28 -0.15
29 -0.15
3 -0.43
30 -0.15
31 0.28
4 -0.57
5 -0.57
52 0.15
53 0.15
59 0.15
6 -0.56
60 0.15
61 0.15
7 -0.57
8 -0.66
9 0.3

> <PUBCHEM_EFFECTIVE_ROTOR_COUNT>
7.8

> <PUBCHEM_PHARMACOPHORE_FEATURES>
7
1 1 acceptor
1 4 acceptor
1 5 acceptor
1 6 acceptor
1 7 acceptor
3 15 19 20 hydrophobe
6 16 24 25 28 29 30 rings

> <PUBCHEM_HEAVY_ATOM_COUNT>
31

> <PUBCHEM_ATOM_DEF_STEREO_COUNT>
4

> <PUBCHEM_ATOM_UDEF_STEREO_COUNT>
0

> <PUBCHEM_BOND_DEF_STEREO_COUNT>
0

> <PUBCHEM_BOND_UDEF_STEREO_COUNT>
0

> <PUBCHEM_ISOTOPIC_ATOM_COUNT>
0

> <PUBCHEM_COMPONENT_COUNT>
1

> <PUBCHEM_CACTVS_TAUTO_COUNT>
8

> <PUBCHEM_CONFORMER_ID>
02A3C00600000001

> <PUBCHEM_MMFF94_ENERGY>
83.6538

> <PUBCHEM_FEATURE_SELFOVERLAP>
35.557

> <PUBCHEM_SHAPE_FINGERPRINT>
10006869 2 16972568696397961249
11115154 58 17763168147927214181
11578080 2 17835838504522040113
12156800 1 15216918084455518454
12597179 24 17983858066798312185
12788726 201 17334513604835527809
133893 2 17702403881956316625
14068700 675 17759517772763708622
14787075 74 18272104794096501964
15664445 248 17916300542025059135
17980427 26 18269251552890543405
20600515 1 17907624390264977260
20691752 17 17109905863387453706
20775438 99 17986659584041056887
23419403 2 17911826835148373252
35225 105 17827890117795248208
508706 21 17763751283635693038
57527452 28 16098345098324358954
6669772 16 18268981141780832355

> <PUBCHEM_SHAPE_MULTIPOLES>
591.9
6.31
5.68
3.12
8.22
4.5
-0.72
-5.22
-2.88
-3.29
2.83
-1.47
-0.29
3.75

> <PUBCHEM_SHAPE_SELFOVERLAP>
1209.064

> <PUBCHEM_SHAPE_VOLUME>
338.3

> <PUBCHEM_COORDINATE_TYPE>
2
5
10

$$$$
44285926
  -OEChem-03242010093D

 51 52  0     1  0  0  0  0  0999 V2000
    1.4537    2.3712    2.1468 O   0  0  0  0  0  0  0  0  0  0  0  0
   -0.9956   -0.8576    1.3990 O   0  0  0  0  0  0  0  0  0  0  0  0
   -2.0556    0.1586   -1.0876 O   0  0  0  0  0  0  0  0  0  0  0  0
   -1.8476    3.1799   -2.0189 O   0  0  0  0  0  0  0  0  0  0  0  0
   -2.7026    0.0356    2.6492 O   0  0  0  0  0  0  0  0  0  0  0  0
   -1.7094   -1.8340   -2.1973 O   0  0  0  0  0  0  0  0  0  0  0  0
   -0.1482    2.4820   -0.5887 N   0  0  0  0  0  0  0  0  0  0  0  0
    0.6711    1.4007    0.0273 C   0  0  2  0  0  0  0  0  0  0  0  0
    0.6455    1.3381    1.5800 C   0  0  2  0  0  0  0  0  0  0  0  0
    2.1046    1.4408   -0.5193 C   0  0  0  0  0  0  0  0  0  0  0  0
   -0.7467    1.3665    2.2307 C   0  0  0  0  0  0  0  0  0  0  0  0
    2.7610    0.0924   -0.4380 C   0  0  0  0  0  0  0  0  0  0  0  0
   -1.7392   -2.0666    1.1104 C   0  0  1  0  0  0  0  0  0  0  0  0
   -2.7777   -1.8039   -0.0040 C   0  0  1  0  0  0  0  0  0  0  0  0
   -1.1376    2.2766   -1.5638 C   0  0  0  0  0  0  0  0  0  0  0  0
    0.1021    3.8613   -0.1709 C   0  0  0  0  0  0  0  0  0  0  0  0
   -1.5947    0.1157    2.1295 C   0  0  0  0  0  0  0  0  0  0  0  0
   -1.3353    0.8712   -2.0925 C   0  0  0  0  0  0  0  0  0  0  0  0
   -2.1269   -1.1966   -1.2399 C   0  0  0  0  0  0  0  0  0  0  0  0
   -0.7028   -3.1325    0.7629 C   0  0  0  0  0  0  0  0  0  0  0  0
   -3.5803   -3.0475   -0.3806 C   0  0  0  0  0  0  0  0  0  0  0  0
    3.4787   -0.2659    0.7031 C   0  0  0  0  0  0  0  0  0  0  0  0
    2.6527   -0.8017   -1.5030 C   0  0  0  0  0  0  0  0  0  0  0  0
    4.0884   -1.5182    0.7790 C   0  0  0  0  0  0  0  0  0  0  0  0
    3.2623   -2.0539   -1.4272 C   0  0  0  0  0  0  0  0  0  0  0  0
    3.9802   -2.4122   -0.2861 C   0  0  0  0  0  0  0  0  0  0  0  0
    0.2376    0.4563   -0.2992 H   0  0  0  0  0  0  0  0  0  0  0  0
    1.1237    0.4018    1.8884 H   0  0  0  0  0  0  0  0  0  0  0  0
    2.7192    2.1948   -0.0128 H   0  0  0  0  0  0  0  0  0  0  0  0
    2.0933    1.7524   -1.5732 H   0  0  0  0  0  0  0  0  0  0  0  0
   -1.3371    2.1963    1.8295 H   0  0  0  0  0  0  0  0  0  0  0  0
   -0.6246    1.5614    3.3040 H   0  0  0  0  0  0  0  0  0  0  0  0
   -2.2555   -2.3879    2.0243 H   0  0  0  0  0  0  0  0  0  0  0  0
   -3.5048   -1.0641    0.3570 H   0  0  0  0  0  0  0  0  0  0  0  0
   -0.2396    3.9963    0.8577 H   0  0  0  0  0  0  0  0  0  0  0  0
   -0.4222    4.5830   -0.8026 H   0  0  0  0  0  0  0  0  0  0  0  0
    1.1734    4.0694   -0.2332 H   0  0  0  0  0  0  0  0  0  0  0  0
    1.4961    2.2220    3.1066 H   0  0  0  0  0  0  0  0  0  0  0  0
   -1.9424    0.9175   -3.0033 H   0  0  0  0  0  0  0  0  0  0  0  0
   -0.3758    0.4034   -2.3332 H   0  0  0  0  0  0  0  0  0  0  0  0
   -0.1216   -2.8527   -0.1219 H   0  0  0  0  0  0  0  0  0  0  0  0
   -1.1616   -4.1100    0.5925 H   0  0  0  0  0  0  0  0  0  0  0  0
    0.0183   -3.2351    1.5819 H   0  0  0  0  0  0  0  0  0  0  0  0
   -2.9568   -3.8148   -0.8505 H   0  0  0  0  0  0  0  0  0  0  0  0
   -4.3670   -2.7911   -1.0991 H   0  0  0  0  0  0  0  0  0  0  0  0
   -4.0587   -3.4844    0.5018 H   0  0  0  0  0  0  0  0  0  0  0  0
    3.5815    0.4231    1.5369 H   0  0  0  0  0  0  0  0  0  0  0  0
    2.0947   -0.5361   -2.3969 H   0  0  0  0  0  0  0  0  0  0  0  0
    4.6492   -1.7963    1.6666 H   0  0  0  0  0  0  0  0  0  0  0  0
    3.1772   -2.7504   -2.2561 H   0  0  0  0  0  0  0  0  0  0  0  0
    4.4549   -3.3873   -0.2272 H   0  0  0  0  0  0  0  0  0  0  0  0
  1  9  1  0  0  0  0
  1 38  1  0  0  0  0
  2 13  1  0  0  0  0
  2 17  1  0  0  0  0
  3 18  1  0  0  0  0
  3 19  1  0  0  0  0
  4 15  2  0  0  0  0
  5 17  2  0  0  0  0
  6 19  2  0  0  0  0
  7  8  1  0  0  0  0
  7 15  1  0  0  0  0
  7 16  1  0  0  0  0
  8  9  1  0  0  0  0
  8 10  1  0  0  0  0
  8 27  1  0  0  0  0
  9 11  1  0  0  0  0
  9 28  1  0  0  0  0
 10 12  1  0  0  0  0
 10 29  1  0  0  0  0
 10 30  1  0  0  0  0
 11 17  1  0  0  0  0
 11 31  1  0  0  0  0
 11 32  1  0  0  0  0
 12 22  2  0  0  0  0
 12 23  1  0  0  0  0
 13 14  1  0  0  0  0
 13 20  1  0  0  0  0
 13 33  1  0  0  0  0
 14 19  1  0  0  0  0
 14 21  1  0  0  0  0
 14 34  1  0  0  0  0
 15 18  1  0  0  0  0
 16 35  1  0  0  0  0
 16 36  1  0  0  0  0
 16 37  1  0  0  0  0
 18 39  1  0  0  0  0
 18 40  1  0  0  0  0
 20 41  1  0  0  0  0
 20 42  1  0  0  0  0
 20 43  1  0  0  0  0
 21 44  1  0  0  0  0
 21 45  1  0  0  0  0
 21 46  1  0  0  0  0
 22 24  1  0  0  0  0
 22 47  1  0  0  0  0
 23 25  2  0  0  0  0
 23 48  1  0  0  0  0
 24 26  2  0  0  0  0
 24 49  1  0  0  0  0
 25 26  1  0  0  0  0
 25 50  1  0  0  0  0
 26 51  1  0  0  0  0
M  END
> <PUBCHEM_COMPOUND_CID>
44285926

> <PUBCHEM_CONFORMER_RMSD>
0.8

> <PUBCHEM_CONFORMER_DIVERSEORDER>
1
20
18
19
9
22
21
8
2
11
13
17
16
14
24
15
12
10
3
7
4
23
5
6

> <PUBCHEM_MMFF94_PARTIAL_CHARGES>
30
1 -0.68
10 0.14
11 0.06
12 -0.14
13 0.28
14 0.06
15 0.57
16 0.3
17 0.66
18 0.34
19 0.66
2 -0.43
22 -0.15
23 -0.15
24 -0.15
25 -0.15
26 -0.15
3 -0.43
38 0.4
4 -0.57
47 0.15
48 0.15
49 0.15
5 -0.57
50 0.15
51 0.15
6 -0.57
7 -0.66
8 0.3
9 0.28

> <PUBCHEM_EFFECTIVE_ROTOR_COUNT>
3.8

> <PUBCHEM_PHARMACOPHORE_FEATURES>
6
1 1 acceptor
1 1 donor
1 4 acceptor
1 5 acceptor
1 6 acceptor
6 12 22 23 24 25 26 rings

> <PUBCHEM_HEAVY_ATOM_COUNT>
26

> <PUBCHEM_ATOM_DEF_STEREO_COUNT>
4

> <PUBCHEM_ATOM_UDEF_STEREO_COUNT>
0

> <PUBCHEM_BOND_DEF_STEREO_COUNT>
0

> <PUBCHEM_BOND_UDEF_STEREO_COUNT>
0

> <PUBCHEM_ISOTOPIC_ATOM_COUNT>
0

> <PUBCHEM_COMPONENT_COUNT>
1

> <PUBCHEM_CACTVS_TAUTO_COUNT>
8

> <PUBCHEM_CONFORMER_ID>
02A3BFE600000001

> <PUBCHEM_MMFF94_ENERGY>
63.9286

> <PUBCHEM_FEATURE_SELFOVERLAP>
30.448

> <PUBCHEM_SHAPE_FINGERPRINT>
107951 10 16955359157627131357
11578080 2 18272079534982936168
11582403 64 15692664572382359281
12156800 1 17259842617613521914
12422481 6 17128778710628759411
12553582 1 18263104204875504778
12788726 201 18188501176546269532
13931106 250 18191588553910469378
18981168 100 10807927155410870296
20775530 9 18340490079132287894
21330990 113 17828511096899052657
21421861 104 17487066814531301731
22907989 373 17606991419830318204
23419403 2 17843935213221560000
3027735 51 18192707843552193015
35225 105 17833304967379722238
484985 159 17843970234675542438
513532 50 17762851758913428687
550186 7 17398331772516026648
84936 31 17470462088844335273

> <PUBCHEM_SHAPE_MULTIPOLES>
494.87
5.78
4.27
2.48
4.51
1.35
0.53
-5.49
-0.46
-1.34
-0.81
-1.39
0.83
0.8

> <PUBCHEM_SHAPE_SELFOVERLAP>
1019.23

> <PUBCHEM_SHAPE_VOLUME>
280.3

> <PUBCHEM_COORDINATE_TYPE>
2
5
10

$$$$
